182
Model[1]: Jmol 14.29.25  2018-10-10 10:57
Ag      5.69180     12.50810     14.35670
Ag      5.69660     14.45050     12.42360
Ag      5.70060     14.53070     16.39000
Ag      5.70680     16.47570     14.45350
Ag      7.81510      9.97100     14.67870
Ag      9.91900      7.87740     14.36040
Ag      9.96770     10.30610     12.45630
Ag     10.10910     10.37880     16.52270
Ag      7.82300     14.78450      9.88860
Ag      9.97140     12.53750     10.22290
Ag      9.92560     14.45450      7.80520
Ag      7.93310     12.29460     12.20430
Ag      7.90820     14.47770     14.39970
Ag      9.93740     12.38730     14.40110
Ag      9.93770     14.48460     12.30660
Ag      7.87990     12.41790     16.43610
Ag      7.81870     14.16470     18.89340
Ag     10.11100     12.30720     18.46140
Ag      9.93800     14.45080     16.47820
Ag      9.92700     14.45250     20.96820
Ag     10.11270     16.61880     10.30830
Ag      7.88560     16.52350     12.34930
Ag      7.83520     18.98040     14.10870
Ag      9.93940     16.55070     14.39030
Ag     10.10740     18.53920     12.25250
Ag      7.93800     16.66370     16.59730
Ag      9.97090     16.37840     18.57450
Ag      9.97310     18.63450     16.33810
Ag      9.92470     21.05050     14.44100
Ag     12.29120      5.80080     13.73200
Ag     14.79810      5.82940     12.52920
Ag     13.52610      5.82620     16.24650
Ag     11.94630     10.41250     10.33930
Ag     14.15530      8.02340     10.06660
Ag     14.16610     10.14720      7.93070
Ag     12.14080      8.28580     12.19440
Ag     12.10490     10.26340     14.36580
Ag     14.16410      8.10780     14.38200
Ag     14.15280     10.27750     12.31540
Ag     11.98250      8.27920     16.40680
Ag     12.22210     10.27920     18.54480
Ag     14.15670      8.00100     18.68070
Ag     14.16810     10.27400     16.44380
Ag     14.17710     10.11980     20.79910
Ag     12.29060     13.79890      5.73200
Ag     14.80410     12.60310      5.74480
Ag     12.14510     12.26770      8.21580
Ag     12.10060     14.45540     10.18220
Ag     14.15220     12.40050     10.19950
Ag     14.15310     14.46740      8.02700
Ag     12.03010     12.40620     12.32280
Ag     12.03490     14.46600     14.39140
Ag     14.15900     12.38130     14.38200
Ag     14.15420     14.47200     12.29830
Ag     12.09670     12.38900     16.45290
Ag     12.10800     14.46400     18.58870
Ag     14.17230     12.38330     18.56510
Ag     14.16070     14.46080     16.47370
Ag     11.99100     12.40650     20.55740
Ag     12.29570     15.06690     23.03740
Ag     13.54710     12.55130     23.00040
Ag     14.17150     14.43770     20.73760
Ag     13.51990     16.32120      5.74600
Ag     11.98000     16.50920      8.20410
Ag     12.20960     18.64820     10.21580
Ag     14.14910     16.54240     10.20180
Ag     14.13520     18.79590      7.92850
Ag     12.09100     16.53610     12.32310
Ag     12.09890     18.66570     14.42020
Ag     14.15220     16.55350     14.39510
Ag     14.14680     18.65510     12.32790
Ag     12.02930     16.52060     16.46290
Ag     11.94090     18.49570     18.45970
Ag     14.15840     16.51920     18.57930
Ag     14.14800     18.64420     16.47570
Ag     12.15950     16.62880     20.57160
Ag     14.79930     16.27710     23.02800
Ag     14.16640     18.74950     20.86120
Ag     14.13660     20.91950     10.07340
Ag     11.96780     20.64130     12.36610
Ag     12.25660     23.11520     15.08500
Ag     14.13920     20.81820     14.41020
Ag     13.49190     23.09600     12.55690
Ag     12.14450     20.63250     16.61520
Ag     14.15110     20.88660     18.73930
Ag     14.76440     23.08770     16.28380
Ag     16.03960      5.80560     15.04910
Ag     16.09510     10.29550     10.21030
Ag     16.33580      8.28460     12.34470
Ag     16.21660     10.26570     14.39480
Ag     18.39670      7.88370     14.40790
Ag     18.20220     10.39250     12.23540
Ag     16.18600      8.29260     16.57160
Ag     16.38840     10.41570     18.41730
Ag     18.36160     10.31090     16.29970
Ag     16.03160     15.13160      5.73060
Ag     16.33010     12.42910      8.20240
Ag     16.20160     14.49090     10.17590
Ag     18.19710     12.32660     10.30430
Ag     18.37100     14.51230      7.79810
Ag     16.21710     12.40250     12.31170
Ag     16.27740     14.47430     14.38030
Ag     18.37750     12.39760     14.36090
Ag     18.36700     14.47260     12.28890
Ag     16.29160     12.40590     16.43780
Ag     16.22020     14.44370     18.58390
Ag     18.35760     12.53900     18.54290
Ag     18.37800     14.48800     16.46090
Ag     16.18970     12.25480     20.55000
Ag     16.05290     13.76690     23.03340
Ag     18.41030     14.45080     20.95970
Ag     16.14150     16.68340      8.20640
Ag     16.34480     18.53580     10.33790
Ag     18.31940     16.41930     10.20720
Ag     16.27150     16.54210     12.32140
Ag     16.19760     18.67480     14.38230
Ag     18.36560     16.56550     14.39310
Ag     18.31910     18.65770     12.45750
Ag     16.22000     16.53550     16.45860
Ag     16.09680     18.62900     18.57450
Ag     18.20670     16.61300     18.46570
Ag     18.19820     18.55180     16.53830
Ag     16.34090     16.48680     20.57050
Ag     16.13900     20.65330     12.20410
Ag     15.99680     23.12380     13.76010
Ag     18.36700     21.06480     14.38630
Ag     16.31960     20.64360     16.44240
Ag     20.49360      9.97760     14.07680
Ag     20.46840     14.18870      9.87010
Ag     20.42590     12.43480     12.32370
Ag     20.40020     14.48920     14.36830
Ag     22.61600     12.51470     14.40740
Ag     22.60240     14.54150     12.37860
Ag     20.38860     12.30400     16.56020
Ag     20.50330     14.79050     18.88230
Ag     22.61890     14.45340     16.34670
Ag     20.35710     16.68430     12.18380
Ag     20.47210     18.99620     14.69240
Ag     22.60160     16.48060     14.31940
Ag     20.42760     16.53090     16.42470
O      14.16130     14.46050      4.79690
O      23.57630     14.50180     14.35890
O      14.16860      4.87330     14.39080
O       4.73380     14.49550     14.40710
O      14.12390     24.04630     14.42390
O      14.17260     14.40620     23.96480
O      12.75620      9.01630      8.92220
O      15.61080     10.98030      6.74080
O      12.70490     17.94340      6.73510
O      15.53610     19.93540      8.92310
O      15.59390      6.82860     10.90250
O      12.69750     22.10130     10.92420
O      15.58200     22.08560     17.89880
O      12.75560     19.88530     19.87880
O      15.60660     17.90710     22.04770
O      12.69750      6.82240     17.85840
O      15.58140      8.98540     19.80020
O      12.72900     10.94190     21.99240
O      10.70540     12.89700      6.72430
O       8.90330     16.03470      8.65060
O       6.59060     13.49680     10.82940
O       6.59430     15.48560     17.98730
O       8.89060     12.88980     20.11180
O      10.71650     15.99670     22.05850
O      17.59700     16.07680      6.72150
O      19.38900     12.92620      8.63970
O      21.69320     15.49870     10.79150
O      21.73140     13.49680     17.94460
O      19.42440     16.04070     20.12310
O      17.64320     12.88210     22.03120
O      10.70740      6.78340     12.81740
O       8.88910      8.73080     15.92950
O       6.58300     10.91620     13.39450
O      17.62450      6.79030     15.96140
O       6.60420     18.06560     15.41760
O       8.91890     20.20980     12.84790
O      10.68730     22.11960     16.01500
O      19.41190      8.73790     12.82910
O      21.72460     10.91960     15.36660
O      17.57750     22.14600     12.83450
O      19.39770     20.22210     15.96230
O      21.69000     18.07450     13.37720

